MastesRls/DataRaw/IEEE10.raw
0,   100.00
CIGRE Test System, 10 Buses, 3 Generators          / PSS/E-30.0    
Created by College of Electrical Engineering, Zhejiang University, Sun 24 Nov 2013 14:39:13
    1,  ' Bus-1  ',   1.0000,    3,    0,    0,    1,    1,    0.980000,    0.000000,    1
    2,  ' Bus-2  ',   1.0000,    2,    0,    0,    1,    1,    0.964000,    -6.95677,    1
    3,  ' Bus-3  ',   1.0000,    2,    0,    0,    1,    1,    0.972000,    -21.2184,    1
    4,  ' Bus-4  ',   1.0000,    1,    0,    0,    1,    1,    1.095940,    -3.92293,    1
    5,  ' Bus-5  ',   1.0000,    1,    0,    0,    1,    1,    1.090020,    -10.7616,    1
    6,  ' Bus-6  ',   1.0000,    1,    0,  868,    1,    1,    1.079510,    -25.0065,    1
    7,  ' Bus-7  ',   1.0000,    1,    0, 1500,    1,    1,    0.999031,    -30.2673,    1
    8,  ' Bus-8  ',   1.0000,    1,    0,  300,    1,    1,    1.012230,    -30.2553,    1
    9,  ' Bus-9  ',   1.0000,    1,    0,    0,    1,    1,    0.977771,    -35.4805,    1
   10,  ' Bus-10 ',   1.0000,    1,    0,    0,    1,    1,    1.002640,    -37.1043,    1
0 / END OF BUS DATA, BEGIN LOAD DATA
    7,    '1',    1,    1,    1,   3000.0,   1800.0,    0,    0,    0,    0,    1
    10,   '1',    1,    1,    1,   3000.0,      0.0,    0,    0,    0,    0,    1
0 / END OF LOAD DATA, BEGIN GENERATOR DATA    
    1,    '1',     3556.1,    623.28,    5000,    -5000,    0.980,    0,    100,    0,    1,    0,    0,    1,    1,    100,    9999,    -9999,    1,    1
    2,    '1',     1500.0,     17.40,     725,     -200,    0.964,    0,    100,    0,    1,    0,    0,    1,    1,    100,    9999,    -9999,    1,    1
    3,    '1',     1094.0,      0.32,     700,     -200,    0.972,    0,    100,    0,    1,    0,    0,    1,    1,    100,    9999,    -9999,    1,    1
0 / END OF GENERATOR DATA, BEGIN BRANCH DATA
    4,    5,     '1',    0.0000,    0.00400,    0.000,    0,    0,    0,    0,    0,    0,    0,    1,    0,    1,    1
    5,    6,     '1',    0.0015,    0.02880,    2.346,    0,    0,    0,    0,    0,    0,    0,    1,    0,    1,    1
    5,    6,     '2',    0.0015,    0.02880,    2.346,    0,    0,    0,    0,    0,    0,    0,    1,    0,    1,    1
    5,    6,     '3',    0.0015,    0.02880,    2.346,    0,    0,    0,    0,    0,    0,    0,    1,    0,    1,    1
    5,    6,     '4',    0.0015,    0.02880,    2.346,    0,    0,    0,    0,    0,    0,    0,    1,    0,    1,    1
    5,    6,     '5',    0.0015,    0.02880,    2.346,    0,    0,    0,    0,    0,    0,    0,    1,    0,    1,    1
    8,    9,     '1',    0.0009,    0.00303,    0.000,    0,    0,    0,    0,    0,    0,    0,    1,    0,    1,    1
0 / END OF BRANCH DATA, BEGIN TRANSFORMER DATA
4,    1,    0,'1',1,1,1,    0,    0,    2,    '        ',1,    1,    1
    0,    0.001830,    100
    1.1291,    0,    0,    0,    0,    0,    0,    0,    1.1,    0.9,    1.1,    0.9,    33,    0,    0,    0
    1,    0
5,    2,    0,'1',1,1,1,    0,    0,    2,    '        ',1,    1,    1
    0,    0.004117,    100
    1.1291,    0,    0,    0,    0,    0,    0,    0,    1.1,    0.9,    1.1,    0.9,    33,    0,    0,    0
    1,    0
6,    3,    0,'1',1,1,1,    0,    0,    2,    '        ',1,    1,    1
    0,    0.005718,    100
    1.1082,    0,    0,    0,    0,    0,    0,    0,    1.1,    0.9,    1.1,    0.9,    33,    0,    0,    0
    1,    0
6,    7,    0,'1',1,1,1,    0,    0,    2,    '        ',1,    1,    1
    0,    0.003092,    100
    1.0660,    0,    0,    0,    0,    0,    0,    0,    1.1,    0.9,    1.1,    0.9,    33,    0,    0,    0
    1,    0
6,    8,    0,'1',1,1,1,    0,    0,    2,    '        ',1,    1,    1
    0,    0.003057,    100
    1.0600,    0,    0,    0,    0,    0,    0,    0,    1.1,    0.9,    1.1,    0.9,    33,    0,    0,    0
    1,    0
9,   10,    0,'1',1,1,1,    0,    0,    2,    '        ',1,    1,    1
    0,    0.000950,    100
    0.9748,    0,    0,    0,    0,    0,    0,    0,    1.1,    0.9,    1.1,    0.9,    33,    0,    0,    0
    1,    0
0 / END OF TRANSFORMER DATA, BEGIN AREA DATA
0 / END OF TRANSFORMER DATA, BEGIN AREA DATA
0 / END OF AREA DATA, BEGIN TWO-TERMINAL DC DATA
0 / END OF TWO-TERMINAL DC DATA, BEGIN VSC DC LINE DATA
0 / END OF VSC DC LINE DATA, BEGIN SWITCHED SHUNT DATA
0 / END OF SWITCHED SHUNT DATA, BEGIN IMPEDANCE CORRECTION DATA
0 / END OF IMPEDANCE CORRECTION DATA, BEGIN MULTI-TERMINAL DC DATA
0 / END OF MULTI-TERMINAL DC DATA, BEGIN MULTI-SECTION LINE DATA
0 / END OF MULTI-SECTION LINE DATA, BEGIN ZONE DATA
0 / END OF ZONE DATA, BEGIN INTER-AREA TRANSFER DATA
0 / END OF INTER-AREA TRANSFER DATA, BEGIN OWNER DATA
0 / END OF OWNER DATA, BEGIN FACTS DEVICE DATA
0 / END OF FACTS DEVICE DATA
